
#======================================================================
# CRYSTAL DATA
#----------------------------------------------------------------------
data_VESTA_phase_1

_chemical_name_common                  'New structure'
_cell_length_a                         17.587000
_cell_length_b                         17.587000
_cell_length_c                         20.000000
_cell_angle_alpha                      90.000000
_cell_angle_beta                       90.000000
_cell_angle_gamma                      120.000000
_cell_volume                           5357.277579
_space_group_name_H-M_alt              'P 1'
_space_group_IT_number                 1

loop_
_space_group_symop_operation_xyz
   'x, y, z'

loop_
   _atom_site_label
   _atom_site_occupancy
   _atom_site_fract_x
   _atom_site_fract_y
   _atom_site_fract_z
   _atom_site_adp_type
   _atom_site_U_iso_or_equiv
   _atom_site_type_symbol
   B          1.0     0.047619     0.095238     0.500000    Uiso  0.050000 B
   B          1.0     0.047619     0.238095     0.500000    Uiso  0.050000 B
   B          1.0     0.047619     0.380952     0.500000    Uiso  0.050000 B
   B          1.0     0.047619     0.523810     0.500000    Uiso  0.050000 B
   B          1.0     0.047619     0.666667     0.500000    Uiso  0.050000 B
   B          1.0     0.047619     0.809524     0.500000    Uiso  0.050000 B
   B          1.0     0.047619     0.952381     0.500000    Uiso  0.050000 B
   B          1.0     0.190476     0.095238     0.500000    Uiso  0.050000 B
   B          1.0     0.190476     0.238095     0.500000    Uiso  0.050000 B
   B          1.0     0.190476     0.380952     0.500000    Uiso  0.050000 B
   B          1.0     0.190476     0.523810     0.500000    Uiso  0.050000 B
   B          1.0     0.190476     0.666667     0.500000    Uiso  0.050000 B
   B          1.0     0.190476     0.809524     0.500000    Uiso  0.050000 B
   B          1.0     0.190476     0.952381     0.500000    Uiso  0.050000 B
   B          1.0     0.333333     0.095238     0.500000    Uiso  0.050000 B
   B          1.0     0.333333     0.238095     0.500000    Uiso  0.050000 B
   B          1.0     0.333333     0.380952     0.500000    Uiso  0.050000 B
   B          1.0     0.333333     0.523810     0.500000    Uiso  0.050000 B
   B          1.0     0.333333     0.666667     0.500000    Uiso  0.050000 B
   B          1.0     0.333333     0.809524     0.500000    Uiso  0.050000 B
   B          1.0     0.333333     0.952381     0.500000    Uiso  0.050000 B
   B          1.0     0.476190     0.095238     0.500000    Uiso  0.050000 B
   B          1.0     0.476190     0.238095     0.500000    Uiso  0.050000 B
   B          1.0     0.476190     0.380952     0.500000    Uiso  0.050000 B
   C          1.0     0.476190     0.523810     0.500000    Uiso  0.050000 C
   B          1.0     0.476190     0.666667     0.500000    Uiso  0.050000 B
   B          1.0     0.476190     0.809524     0.500000    Uiso  0.050000 B
   B          1.0     0.476190     0.952381     0.500000    Uiso  0.050000 B
   B          1.0     0.619048     0.095238     0.500000    Uiso  0.050000 B
   B          1.0     0.619048     0.238095     0.500000    Uiso  0.050000 B
   B          1.0     0.619048     0.380952     0.500000    Uiso  0.050000 B
   B          1.0     0.619048     0.523810     0.500000    Uiso  0.050000 B
   B          1.0     0.619048     0.666667     0.500000    Uiso  0.050000 B
   B          1.0     0.619048     0.809524     0.500000    Uiso  0.050000 B
   B          1.0     0.619048     0.952381     0.500000    Uiso  0.050000 B
   B          1.0     0.761905     0.095238     0.500000    Uiso  0.050000 B
   B          1.0     0.761905     0.238095     0.500000    Uiso  0.050000 B
   B          1.0     0.761905     0.380952     0.500000    Uiso  0.050000 B
   B          1.0     0.761905     0.523810     0.500000    Uiso  0.050000 B
   B          1.0     0.761905     0.666667     0.500000    Uiso  0.050000 B
   B          1.0     0.761905     0.809524     0.500000    Uiso  0.050000 B
   B          1.0     0.761905     0.952381     0.500000    Uiso  0.050000 B
   B          1.0     0.904762     0.095238     0.500000    Uiso  0.050000 B
   B          1.0     0.904762     0.238095     0.500000    Uiso  0.050000 B
   B          1.0     0.904762     0.380952     0.500000    Uiso  0.050000 B
   B          1.0     0.904762     0.523810     0.500000    Uiso  0.050000 B
   B          1.0     0.904762     0.666667     0.500000    Uiso  0.050000 B
   B          1.0     0.904762     0.809524     0.500000    Uiso  0.050000 B
   B          1.0     0.904762     0.952381     0.500000    Uiso  0.050000 B
   N          1.0     0.095238     0.047619     0.500000    Uiso  0.050000 N
   N          1.0     0.095238     0.190476     0.500000    Uiso  0.050000 N
   N          1.0     0.095238     0.333333     0.500000    Uiso  0.050000 N
   N          1.0     0.095238     0.476190     0.500000    Uiso  0.050000 N
   N          1.0     0.095238     0.619048     0.500000    Uiso  0.050000 N
   N          1.0     0.095238     0.761905     0.500000    Uiso  0.050000 N
   N          1.0     0.095238     0.904762     0.500000    Uiso  0.050000 N
   N          1.0     0.238095     0.047619     0.500000    Uiso  0.050000 N
   N          1.0     0.238095     0.190476     0.500000    Uiso  0.050000 N
   N          1.0     0.238095     0.333333     0.500000    Uiso  0.050000 N
   N          1.0     0.238095     0.476190     0.500000    Uiso  0.050000 N
   N          1.0     0.238095     0.619048     0.500000    Uiso  0.050000 N
   N          1.0     0.238095     0.761905     0.500000    Uiso  0.050000 N
   N          1.0     0.238095     0.904762     0.500000    Uiso  0.050000 N
   N          1.0     0.380952     0.047619     0.500000    Uiso  0.050000 N
   N          1.0     0.380952     0.190476     0.500000    Uiso  0.050000 N
   N          1.0     0.380952     0.333333     0.500000    Uiso  0.050000 N
   C          1.0     0.380952     0.476190     0.500000    Uiso  0.050000 C
   N          1.0     0.380952     0.619048     0.500000    Uiso  0.050000 N
   N          1.0     0.380952     0.761905     0.500000    Uiso  0.050000 N
   N          1.0     0.380952     0.904762     0.500000    Uiso  0.050000 N
   N          1.0     0.523810     0.047619     0.500000    Uiso  0.050000 N
   N          1.0     0.523810     0.190476     0.500000    Uiso  0.050000 N
   N          1.0     0.523810     0.333333     0.500000    Uiso  0.050000 N
   N          1.0     0.523810     0.476190     0.500000    Uiso  0.050000 N
   C          1.0     0.523810     0.619048     0.500000    Uiso  0.050000 C
   N          1.0     0.523810     0.761905     0.500000    Uiso  0.050000 N
   N          1.0     0.523810     0.904762     0.500000    Uiso  0.050000 N
   N          1.0     0.666667     0.047619     0.500000    Uiso  0.050000 N
   N          1.0     0.666667     0.190476     0.500000    Uiso  0.050000 N
   N          1.0     0.666667     0.333333     0.500000    Uiso  0.050000 N
   N          1.0     0.666667     0.476190     0.500000    Uiso  0.050000 N
   N          1.0     0.666667     0.619048     0.500000    Uiso  0.050000 N
   N          1.0     0.666667     0.761905     0.500000    Uiso  0.050000 N
   N          1.0     0.666667     0.904762     0.500000    Uiso  0.050000 N
   N          1.0     0.809524     0.047619     0.500000    Uiso  0.050000 N
   N          1.0     0.809524     0.190476     0.500000    Uiso  0.050000 N
   N          1.0     0.809524     0.333333     0.500000    Uiso  0.050000 N
   N          1.0     0.809524     0.476190     0.500000    Uiso  0.050000 N
   N          1.0     0.809524     0.619048     0.500000    Uiso  0.050000 N
   N          1.0     0.809524     0.761905     0.500000    Uiso  0.050000 N
   N          1.0     0.809524     0.904762     0.500000    Uiso  0.050000 N
   N          1.0     0.952381     0.047619     0.500000    Uiso  0.050000 N
   N          1.0     0.952381     0.190476     0.500000    Uiso  0.050000 N
   N          1.0     0.952381     0.333333     0.500000    Uiso  0.050000 N
   N          1.0     0.952381     0.476190     0.500000    Uiso  0.050000 N
   N          1.0     0.952381     0.619048     0.500000    Uiso  0.050000 N
   N          1.0     0.952381     0.761905     0.500000    Uiso  0.050000 N
   N          1.0     0.952381     0.904762     0.500000    Uiso  0.050000 N
